
---------- Begin Simulation Statistics ----------
sim_seconds                                  1.950349                       # Number of seconds simulated
sim_ticks                                1950348865000                       # Number of ticks simulated
final_tick                               1950348865000                       # Number of ticks from beginning of simulation (restored from checkpoints and never reset)
sim_freq                                 1000000000000                       # Frequency of simulated ticks
host_inst_rate                                 365653                       # Simulator instruction rate (inst/s)
host_op_rate                                   585755                       # Simulator op (including micro ops) rate (op/s)
host_tick_rate                              765594617                       # Simulator tick rate (ticks/s)
host_mem_usage                                 669300                       # Number of bytes of host memory used
host_seconds                                  2547.50                       # Real time elapsed on the host
sim_insts                                   931499910                       # Number of instructions simulated
sim_ops                                    1492207794                       # Number of ops (including micro ops) simulated
system.voltage_domain.voltage                       1                       # Voltage in Volts
system.clk_domain.clock                          1000                       # Clock period in ticks
system.mem_ctrls.pwrStateResidencyTicks::UNDEFINED 1950348865000                       # Cumulative time (in ticks) in various power states
system.mem_ctrls.bytes_read::cpu.inst           22720                       # Number of bytes read from this memory
system.mem_ctrls.bytes_read::cpu.data         6472256                       # Number of bytes read from this memory
system.mem_ctrls.bytes_read::total            6494976                       # Number of bytes read from this memory
system.mem_ctrls.bytes_inst_read::cpu.inst        22720                       # Number of instructions bytes read from this memory
system.mem_ctrls.bytes_inst_read::total         22720                       # Number of instructions bytes read from this memory
system.mem_ctrls.bytes_written::writebacks       664448                       # Number of bytes written to this memory
system.mem_ctrls.bytes_written::total          664448                       # Number of bytes written to this memory
system.mem_ctrls.num_reads::cpu.inst              355                       # Number of read requests responded to by this memory
system.mem_ctrls.num_reads::cpu.data           101129                       # Number of read requests responded to by this memory
system.mem_ctrls.num_reads::total              101484                       # Number of read requests responded to by this memory
system.mem_ctrls.num_writes::writebacks         10382                       # Number of write requests responded to by this memory
system.mem_ctrls.num_writes::total              10382                       # Number of write requests responded to by this memory
system.mem_ctrls.bw_read::cpu.inst              11649                       # Total read bandwidth from this memory (bytes/s)
system.mem_ctrls.bw_read::cpu.data            3318512                       # Total read bandwidth from this memory (bytes/s)
system.mem_ctrls.bw_read::total               3330161                       # Total read bandwidth from this memory (bytes/s)
system.mem_ctrls.bw_inst_read::cpu.inst         11649                       # Instruction read bandwidth from this memory (bytes/s)
system.mem_ctrls.bw_inst_read::total            11649                       # Instruction read bandwidth from this memory (bytes/s)
system.mem_ctrls.bw_write::writebacks          340682                       # Write bandwidth from this memory (bytes/s)
system.mem_ctrls.bw_write::total               340682                       # Write bandwidth from this memory (bytes/s)
system.mem_ctrls.bw_total::writebacks          340682                       # Total bandwidth to/from this memory (bytes/s)
system.mem_ctrls.bw_total::cpu.inst             11649                       # Total bandwidth to/from this memory (bytes/s)
system.mem_ctrls.bw_total::cpu.data           3318512                       # Total bandwidth to/from this memory (bytes/s)
system.mem_ctrls.bw_total::total              3670843                       # Total bandwidth to/from this memory (bytes/s)
system.pwrStateResidencyTicks::UNDEFINED 1950348865000                       # Cumulative time (in ticks) in various power states
system.cpu_voltage_domain.voltage                   1                       # Voltage in Volts
system.cpu_clk_domain.clock                       500                       # Clock period in ticks
system.cpu.dtb.walker.pwrStateResidencyTicks::UNDEFINED 1950348865000                       # Cumulative time (in ticks) in various power states
system.cpu.dtb.rdAccesses                   382684119                       # TLB accesses on read requests
system.cpu.dtb.wrAccesses                    56342491                       # TLB accesses on write requests
system.cpu.dtb.rdMisses                       7936310                       # TLB misses on read requests
system.cpu.dtb.wrMisses                           272                       # TLB misses on write requests
system.cpu.apic_clk_domain.clock                 8000                       # Clock period in ticks
system.cpu.interrupts.pwrStateResidencyTicks::UNDEFINED 1950348865000                       # Cumulative time (in ticks) in various power states
system.cpu.itb.walker.pwrStateResidencyTicks::UNDEFINED 1950348865000                       # Cumulative time (in ticks) in various power states
system.cpu.itb.rdAccesses                           0                       # TLB accesses on read requests
system.cpu.itb.wrAccesses                  1422005638                       # TLB accesses on write requests
system.cpu.itb.rdMisses                             0                       # TLB misses on read requests
system.cpu.itb.wrMisses                            36                       # TLB misses on write requests
system.cpu.workload.numSyscalls                     9                       # Number of system calls
system.cpu.pwrStateResidencyTicks::ON    1950348865000                       # Cumulative time (in ticks) in various power states
system.cpu.numCycles                       3900697730                       # number of cpu cycles simulated
system.cpu.numWorkItemsStarted                      0                       # number of work items this cpu started
system.cpu.numWorkItemsCompleted                    0                       # number of work items this cpu completed
system.cpu.committedInsts                   931499910                       # Number of instructions committed
system.cpu.committedOps                    1492207794                       # Number of ops (including micro ops) committed
system.cpu.num_int_alu_accesses            1491701080                       # Number of integer alu accesses
system.cpu.num_fp_alu_accesses                   1967                       # Number of float alu accesses
system.cpu.num_vec_alu_accesses                     0                       # Number of vector alu accesses
system.cpu.num_func_calls                     1080242                       # number of times a function call or return occured
system.cpu.num_conditional_control_insts     29571460                       # number of instructions that are conditional controls
system.cpu.num_int_insts                   1491701080                       # number of integer instructions
system.cpu.num_fp_insts                          1967                       # number of float instructions
system.cpu.num_vec_insts                            0                       # number of vector instructions
system.cpu.num_int_register_reads          2934935084                       # number of times the integer registers were read
system.cpu.num_int_register_writes         1545512944                       # number of times the integer registers were written
system.cpu.num_fp_register_reads                 3779                       # number of times the floating registers were read
system.cpu.num_fp_register_writes                1492                       # number of times the floating registers were written
system.cpu.num_vec_register_reads                   0                       # number of times the vector registers were read
system.cpu.num_vec_register_writes                  0                       # number of times the vector registers were written
system.cpu.num_cc_register_reads            159199327                       # number of times the CC registers were read
system.cpu.num_cc_register_writes           523310526                       # number of times the CC registers were written
system.cpu.num_mem_refs                     439026603                       # number of memory refs
system.cpu.num_load_insts                   382684113                       # Number of load instructions
system.cpu.num_store_insts                   56342490                       # Number of store instructions
system.cpu.num_idle_cycles                          0                       # Number of idle cycles
system.cpu.num_busy_cycles                 3900697730                       # Number of busy cycles
system.cpu.not_idle_fraction                        1                       # Percentage of non-idle cycles
system.cpu.idle_fraction                            0                       # Percentage of idle cycles
system.cpu.Branches                          30742412                       # Number of branches fetched
system.cpu.op_class::No_OpClass                505293      0.03%      0.03% # Class of executed instruction
system.cpu.op_class::IntAlu                 914844152     61.31%     61.34% # Class of executed instruction
system.cpu.op_class::IntMult                135270004      9.07%     70.41% # Class of executed instruction
system.cpu.op_class::IntDiv                   2560782      0.17%     70.58% # Class of executed instruction
system.cpu.op_class::FloatAdd                      10      0.00%     70.58% # Class of executed instruction
system.cpu.op_class::FloatCmp                       0      0.00%     70.58% # Class of executed instruction
system.cpu.op_class::FloatCvt                       0      0.00%     70.58% # Class of executed instruction
system.cpu.op_class::FloatMult                      0      0.00%     70.58% # Class of executed instruction
system.cpu.op_class::FloatMultAcc                   0      0.00%     70.58% # Class of executed instruction
system.cpu.op_class::FloatDiv                       0      0.00%     70.58% # Class of executed instruction
system.cpu.op_class::FloatMisc                      0      0.00%     70.58% # Class of executed instruction
system.cpu.op_class::FloatSqrt                      0      0.00%     70.58% # Class of executed instruction
system.cpu.op_class::SimdAdd                      374      0.00%     70.58% # Class of executed instruction
system.cpu.op_class::SimdAddAcc                     0      0.00%     70.58% # Class of executed instruction
system.cpu.op_class::SimdAlu                       68      0.00%     70.58% # Class of executed instruction
system.cpu.op_class::SimdCmp                        0      0.00%     70.58% # Class of executed instruction
system.cpu.op_class::SimdCvt                      108      0.00%     70.58% # Class of executed instruction
system.cpu.op_class::SimdMisc                     214      0.00%     70.58% # Class of executed instruction
system.cpu.op_class::SimdMult                       0      0.00%     70.58% # Class of executed instruction
system.cpu.op_class::SimdMultAcc                    0      0.00%     70.58% # Class of executed instruction
system.cpu.op_class::SimdShift                    186      0.00%     70.58% # Class of executed instruction
system.cpu.op_class::SimdShiftAcc                   0      0.00%     70.58% # Class of executed instruction
system.cpu.op_class::SimdSqrt                       0      0.00%     70.58% # Class of executed instruction
system.cpu.op_class::SimdFloatAdd                   0      0.00%     70.58% # Class of executed instruction
system.cpu.op_class::SimdFloatAlu                   0      0.00%     70.58% # Class of executed instruction
system.cpu.op_class::SimdFloatCmp                   0      0.00%     70.58% # Class of executed instruction
system.cpu.op_class::SimdFloatCvt                   0      0.00%     70.58% # Class of executed instruction
system.cpu.op_class::SimdFloatDiv                   0      0.00%     70.58% # Class of executed instruction
system.cpu.op_class::SimdFloatMisc                  0      0.00%     70.58% # Class of executed instruction
system.cpu.op_class::SimdFloatMult                  0      0.00%     70.58% # Class of executed instruction
system.cpu.op_class::SimdFloatMultAcc               0      0.00%     70.58% # Class of executed instruction
system.cpu.op_class::SimdFloatSqrt                  0      0.00%     70.58% # Class of executed instruction
system.cpu.op_class::MemRead                382684045     25.65%     96.22% # Class of executed instruction
system.cpu.op_class::MemWrite                56342063      3.78%    100.00% # Class of executed instruction
system.cpu.op_class::FloatMemRead                  68      0.00%    100.00% # Class of executed instruction
system.cpu.op_class::FloatMemWrite                427      0.00%    100.00% # Class of executed instruction
system.cpu.op_class::IprAccess                      0      0.00%    100.00% # Class of executed instruction
system.cpu.op_class::InstPrefetch                   0      0.00%    100.00% # Class of executed instruction
system.cpu.op_class::total                 1492207794                       # Class of executed instruction
system.cpu.dcache.tags.pwrStateResidencyTicks::UNDEFINED 1950348865000                       # Cumulative time (in ticks) in various power states
system.cpu.dcache.tags.tagsinuse           511.921893                       # Cycle average of tags in use
system.cpu.dcache.tags.total_refs           439026610                       # Total number of references to valid blocks.
system.cpu.dcache.tags.sampled_refs           1767551                       # Sample count of references to valid blocks.
system.cpu.dcache.tags.avg_refs            248.381297                       # Average number of references to valid blocks.
system.cpu.dcache.tags.warmup_cycle            759000                       # Cycle when the warmup percentage was hit.
system.cpu.dcache.tags.occ_blocks::cpu.data   511.921893                       # Average occupied blocks per requestor
system.cpu.dcache.tags.occ_percent::cpu.data     0.999847                       # Average percentage of cache occupancy
system.cpu.dcache.tags.occ_percent::total     0.999847                       # Average percentage of cache occupancy
system.cpu.dcache.tags.occ_task_id_blocks::1024          512                       # Occupied blocks per task id
system.cpu.dcache.tags.age_task_id_blocks_1024::0           16                       # Occupied blocks per task id
system.cpu.dcache.tags.age_task_id_blocks_1024::1           74                       # Occupied blocks per task id
system.cpu.dcache.tags.age_task_id_blocks_1024::2          406                       # Occupied blocks per task id
system.cpu.dcache.tags.age_task_id_blocks_1024::3           15                       # Occupied blocks per task id
system.cpu.dcache.tags.age_task_id_blocks_1024::4            1                       # Occupied blocks per task id
system.cpu.dcache.tags.occ_task_id_percent::1024            1                       # Percentage of cache occupancy per task id
system.cpu.dcache.tags.tag_accesses        1757873991                       # Number of tag accesses
system.cpu.dcache.tags.data_accesses       1757873991                       # Number of data accesses
system.cpu.dcache.pwrStateResidencyTicks::UNDEFINED 1950348865000                       # Cumulative time (in ticks) in various power states
system.cpu.dcache.ReadReq_hits::cpu.data    380933566                       # number of ReadReq hits
system.cpu.dcache.ReadReq_hits::total       380933566                       # number of ReadReq hits
system.cpu.dcache.WriteReq_hits::cpu.data     56325492                       # number of WriteReq hits
system.cpu.dcache.WriteReq_hits::total       56325492                       # number of WriteReq hits
system.cpu.dcache.demand_hits::cpu.data     437259058                       # number of demand (read+write) hits
system.cpu.dcache.demand_hits::total        437259058                       # number of demand (read+write) hits
system.cpu.dcache.overall_hits::cpu.data    437259058                       # number of overall hits
system.cpu.dcache.overall_hits::total       437259058                       # number of overall hits
system.cpu.dcache.ReadReq_misses::cpu.data      1750553                       # number of ReadReq misses
system.cpu.dcache.ReadReq_misses::total       1750553                       # number of ReadReq misses
system.cpu.dcache.WriteReq_misses::cpu.data        16999                       # number of WriteReq misses
system.cpu.dcache.WriteReq_misses::total        16999                       # number of WriteReq misses
system.cpu.dcache.demand_misses::cpu.data      1767552                       # number of demand (read+write) misses
system.cpu.dcache.demand_misses::total        1767552                       # number of demand (read+write) misses
system.cpu.dcache.overall_misses::cpu.data      1767552                       # number of overall misses
system.cpu.dcache.overall_misses::total       1767552                       # number of overall misses
system.cpu.dcache.ReadReq_miss_latency::cpu.data  87806691000                       # number of ReadReq miss cycles
system.cpu.dcache.ReadReq_miss_latency::total  87806691000                       # number of ReadReq miss cycles
system.cpu.dcache.WriteReq_miss_latency::cpu.data   3215433000                       # number of WriteReq miss cycles
system.cpu.dcache.WriteReq_miss_latency::total   3215433000                       # number of WriteReq miss cycles
system.cpu.dcache.demand_miss_latency::cpu.data  91022124000                       # number of demand (read+write) miss cycles
system.cpu.dcache.demand_miss_latency::total  91022124000                       # number of demand (read+write) miss cycles
system.cpu.dcache.overall_miss_latency::cpu.data  91022124000                       # number of overall miss cycles
system.cpu.dcache.overall_miss_latency::total  91022124000                       # number of overall miss cycles
system.cpu.dcache.ReadReq_accesses::cpu.data    382684119                       # number of ReadReq accesses(hits+misses)
system.cpu.dcache.ReadReq_accesses::total    382684119                       # number of ReadReq accesses(hits+misses)
system.cpu.dcache.WriteReq_accesses::cpu.data     56342491                       # number of WriteReq accesses(hits+misses)
system.cpu.dcache.WriteReq_accesses::total     56342491                       # number of WriteReq accesses(hits+misses)
system.cpu.dcache.demand_accesses::cpu.data    439026610                       # number of demand (read+write) accesses
system.cpu.dcache.demand_accesses::total    439026610                       # number of demand (read+write) accesses
system.cpu.dcache.overall_accesses::cpu.data    439026610                       # number of overall (read+write) accesses
system.cpu.dcache.overall_accesses::total    439026610                       # number of overall (read+write) accesses
system.cpu.dcache.ReadReq_miss_rate::cpu.data     0.004574                       # miss rate for ReadReq accesses
system.cpu.dcache.ReadReq_miss_rate::total     0.004574                       # miss rate for ReadReq accesses
system.cpu.dcache.WriteReq_miss_rate::cpu.data     0.000302                       # miss rate for WriteReq accesses
system.cpu.dcache.WriteReq_miss_rate::total     0.000302                       # miss rate for WriteReq accesses
system.cpu.dcache.demand_miss_rate::cpu.data     0.004026                       # miss rate for demand accesses
system.cpu.dcache.demand_miss_rate::total     0.004026                       # miss rate for demand accesses
system.cpu.dcache.overall_miss_rate::cpu.data     0.004026                       # miss rate for overall accesses
system.cpu.dcache.overall_miss_rate::total     0.004026                       # miss rate for overall accesses
system.cpu.dcache.ReadReq_avg_miss_latency::cpu.data 50159.401629                       # average ReadReq miss latency
system.cpu.dcache.ReadReq_avg_miss_latency::total 50159.401629                       # average ReadReq miss latency
system.cpu.dcache.WriteReq_avg_miss_latency::cpu.data 189154.244367                       # average WriteReq miss latency
system.cpu.dcache.WriteReq_avg_miss_latency::total 189154.244367                       # average WriteReq miss latency
system.cpu.dcache.demand_avg_miss_latency::cpu.data 51496.150608                       # average overall miss latency
system.cpu.dcache.demand_avg_miss_latency::total 51496.150608                       # average overall miss latency
system.cpu.dcache.overall_avg_miss_latency::cpu.data 51496.150608                       # average overall miss latency
system.cpu.dcache.overall_avg_miss_latency::total 51496.150608                       # average overall miss latency
system.cpu.dcache.blocked_cycles::no_mshrs            0                       # number of cycles access was blocked
system.cpu.dcache.blocked_cycles::no_targets            0                       # number of cycles access was blocked
system.cpu.dcache.blocked::no_mshrs                 0                       # number of cycles access was blocked
system.cpu.dcache.blocked::no_targets               0                       # number of cycles access was blocked
system.cpu.dcache.avg_blocked_cycles::no_mshrs          nan                       # average number of cycles each access was blocked
system.cpu.dcache.avg_blocked_cycles::no_targets          nan                       # average number of cycles each access was blocked
system.cpu.dcache.writebacks::writebacks        59508                       # number of writebacks
system.cpu.dcache.writebacks::total             59508                       # number of writebacks
system.cpu.dcache.ReadReq_mshr_misses::cpu.data      1750553                       # number of ReadReq MSHR misses
system.cpu.dcache.ReadReq_mshr_misses::total      1750553                       # number of ReadReq MSHR misses
system.cpu.dcache.WriteReq_mshr_misses::cpu.data        16999                       # number of WriteReq MSHR misses
system.cpu.dcache.WriteReq_mshr_misses::total        16999                       # number of WriteReq MSHR misses
system.cpu.dcache.demand_mshr_misses::cpu.data      1767552                       # number of demand (read+write) MSHR misses
system.cpu.dcache.demand_mshr_misses::total      1767552                       # number of demand (read+write) MSHR misses
system.cpu.dcache.overall_mshr_misses::cpu.data      1767552                       # number of overall MSHR misses
system.cpu.dcache.overall_mshr_misses::total      1767552                       # number of overall MSHR misses
system.cpu.dcache.ReadReq_mshr_miss_latency::cpu.data  86056138000                       # number of ReadReq MSHR miss cycles
system.cpu.dcache.ReadReq_mshr_miss_latency::total  86056138000                       # number of ReadReq MSHR miss cycles
system.cpu.dcache.WriteReq_mshr_miss_latency::cpu.data   3198434000                       # number of WriteReq MSHR miss cycles
system.cpu.dcache.WriteReq_mshr_miss_latency::total   3198434000                       # number of WriteReq MSHR miss cycles
system.cpu.dcache.demand_mshr_miss_latency::cpu.data  89254572000                       # number of demand (read+write) MSHR miss cycles
system.cpu.dcache.demand_mshr_miss_latency::total  89254572000                       # number of demand (read+write) MSHR miss cycles
system.cpu.dcache.overall_mshr_miss_latency::cpu.data  89254572000                       # number of overall MSHR miss cycles
system.cpu.dcache.overall_mshr_miss_latency::total  89254572000                       # number of overall MSHR miss cycles
system.cpu.dcache.ReadReq_mshr_miss_rate::cpu.data     0.004574                       # mshr miss rate for ReadReq accesses
system.cpu.dcache.ReadReq_mshr_miss_rate::total     0.004574                       # mshr miss rate for ReadReq accesses
system.cpu.dcache.WriteReq_mshr_miss_rate::cpu.data     0.000302                       # mshr miss rate for WriteReq accesses
system.cpu.dcache.WriteReq_mshr_miss_rate::total     0.000302                       # mshr miss rate for WriteReq accesses
system.cpu.dcache.demand_mshr_miss_rate::cpu.data     0.004026                       # mshr miss rate for demand accesses
system.cpu.dcache.demand_mshr_miss_rate::total     0.004026                       # mshr miss rate for demand accesses
system.cpu.dcache.overall_mshr_miss_rate::cpu.data     0.004026                       # mshr miss rate for overall accesses
system.cpu.dcache.overall_mshr_miss_rate::total     0.004026                       # mshr miss rate for overall accesses
system.cpu.dcache.ReadReq_avg_mshr_miss_latency::cpu.data 49159.401629                       # average ReadReq mshr miss latency
system.cpu.dcache.ReadReq_avg_mshr_miss_latency::total 49159.401629                       # average ReadReq mshr miss latency
system.cpu.dcache.WriteReq_avg_mshr_miss_latency::cpu.data 188154.244367                       # average WriteReq mshr miss latency
system.cpu.dcache.WriteReq_avg_mshr_miss_latency::total 188154.244367                       # average WriteReq mshr miss latency
system.cpu.dcache.demand_avg_mshr_miss_latency::cpu.data 50496.150608                       # average overall mshr miss latency
system.cpu.dcache.demand_avg_mshr_miss_latency::total 50496.150608                       # average overall mshr miss latency
system.cpu.dcache.overall_avg_mshr_miss_latency::cpu.data 50496.150608                       # average overall mshr miss latency
system.cpu.dcache.overall_avg_mshr_miss_latency::total 50496.150608                       # average overall mshr miss latency
system.cpu.dcache.replacements                1767039                       # number of replacements
system.cpu.dtb_walker_cache.tags.pwrStateResidencyTicks::UNDEFINED 1950348865000                       # Cumulative time (in ticks) in various power states
system.cpu.dtb_walker_cache.tags.tagsinuse            0                       # Cycle average of tags in use
system.cpu.dtb_walker_cache.tags.total_refs            0                       # Total number of references to valid blocks.
system.cpu.dtb_walker_cache.tags.sampled_refs            0                       # Sample count of references to valid blocks.
system.cpu.dtb_walker_cache.tags.avg_refs          nan                       # Average number of references to valid blocks.
system.cpu.dtb_walker_cache.tags.warmup_cycle            0                       # Cycle when the warmup percentage was hit.
system.cpu.dtb_walker_cache.tags.tag_accesses            0                       # Number of tag accesses
system.cpu.dtb_walker_cache.tags.data_accesses            0                       # Number of data accesses
system.cpu.dtb_walker_cache.pwrStateResidencyTicks::UNDEFINED 1950348865000                       # Cumulative time (in ticks) in various power states
system.cpu.dtb_walker_cache.blocked_cycles::no_mshrs            0                       # number of cycles access was blocked
system.cpu.dtb_walker_cache.blocked_cycles::no_targets            0                       # number of cycles access was blocked
system.cpu.dtb_walker_cache.blocked::no_mshrs            0                       # number of cycles access was blocked
system.cpu.dtb_walker_cache.blocked::no_targets            0                       # number of cycles access was blocked
system.cpu.dtb_walker_cache.avg_blocked_cycles::no_mshrs          nan                       # average number of cycles each access was blocked
system.cpu.dtb_walker_cache.avg_blocked_cycles::no_targets          nan                       # average number of cycles each access was blocked
system.cpu.dtb_walker_cache.replacements            0                       # number of replacements
system.cpu.icache.tags.pwrStateResidencyTicks::UNDEFINED 1950348865000                       # Cumulative time (in ticks) in various power states
system.cpu.icache.tags.tagsinuse           308.933346                       # Cycle average of tags in use
system.cpu.icache.tags.total_refs          1422005638                       # Total number of references to valid blocks.
system.cpu.icache.tags.sampled_refs               355                       # Sample count of references to valid blocks.
system.cpu.icache.tags.avg_refs          4005649.684507                       # Average number of references to valid blocks.
system.cpu.icache.tags.warmup_cycle            439000                       # Cycle when the warmup percentage was hit.
system.cpu.icache.tags.occ_blocks::cpu.inst   308.933346                       # Average occupied blocks per requestor
system.cpu.icache.tags.occ_percent::cpu.inst     0.603385                       # Average percentage of cache occupancy
system.cpu.icache.tags.occ_percent::total     0.603385                       # Average percentage of cache occupancy
system.cpu.icache.tags.occ_task_id_blocks::1024          342                       # Occupied blocks per task id
system.cpu.icache.tags.age_task_id_blocks_1024::0           29                       # Occupied blocks per task id
system.cpu.icache.tags.age_task_id_blocks_1024::1            9                       # Occupied blocks per task id
system.cpu.icache.tags.age_task_id_blocks_1024::4          304                       # Occupied blocks per task id
system.cpu.icache.tags.occ_task_id_percent::1024     0.667969                       # Percentage of cache occupancy per task id
system.cpu.icache.tags.tag_accesses        5688022907                       # Number of tag accesses
system.cpu.icache.tags.data_accesses       5688022907                       # Number of data accesses
system.cpu.icache.pwrStateResidencyTicks::UNDEFINED 1950348865000                       # Cumulative time (in ticks) in various power states
system.cpu.icache.ReadReq_hits::cpu.inst   1422005283                       # number of ReadReq hits
system.cpu.icache.ReadReq_hits::total      1422005283                       # number of ReadReq hits
system.cpu.icache.demand_hits::cpu.inst    1422005283                       # number of demand (read+write) hits
system.cpu.icache.demand_hits::total       1422005283                       # number of demand (read+write) hits
system.cpu.icache.overall_hits::cpu.inst   1422005283                       # number of overall hits
system.cpu.icache.overall_hits::total      1422005283                       # number of overall hits
system.cpu.icache.ReadReq_misses::cpu.inst          355                       # number of ReadReq misses
system.cpu.icache.ReadReq_misses::total           355                       # number of ReadReq misses
system.cpu.icache.demand_misses::cpu.inst          355                       # number of demand (read+write) misses
system.cpu.icache.demand_misses::total            355                       # number of demand (read+write) misses
system.cpu.icache.overall_misses::cpu.inst          355                       # number of overall misses
system.cpu.icache.overall_misses::total           355                       # number of overall misses
system.cpu.icache.ReadReq_miss_latency::cpu.inst     62406000                       # number of ReadReq miss cycles
system.cpu.icache.ReadReq_miss_latency::total     62406000                       # number of ReadReq miss cycles
system.cpu.icache.demand_miss_latency::cpu.inst     62406000                       # number of demand (read+write) miss cycles
system.cpu.icache.demand_miss_latency::total     62406000                       # number of demand (read+write) miss cycles
system.cpu.icache.overall_miss_latency::cpu.inst     62406000                       # number of overall miss cycles
system.cpu.icache.overall_miss_latency::total     62406000                       # number of overall miss cycles
system.cpu.icache.ReadReq_accesses::cpu.inst   1422005638                       # number of ReadReq accesses(hits+misses)
system.cpu.icache.ReadReq_accesses::total   1422005638                       # number of ReadReq accesses(hits+misses)
system.cpu.icache.demand_accesses::cpu.inst   1422005638                       # number of demand (read+write) accesses
system.cpu.icache.demand_accesses::total   1422005638                       # number of demand (read+write) accesses
system.cpu.icache.overall_accesses::cpu.inst   1422005638                       # number of overall (read+write) accesses
system.cpu.icache.overall_accesses::total   1422005638                       # number of overall (read+write) accesses
system.cpu.icache.ReadReq_miss_rate::cpu.inst     0.000000                       # miss rate for ReadReq accesses
system.cpu.icache.ReadReq_miss_rate::total     0.000000                       # miss rate for ReadReq accesses
system.cpu.icache.demand_miss_rate::cpu.inst     0.000000                       # miss rate for demand accesses
system.cpu.icache.demand_miss_rate::total     0.000000                       # miss rate for demand accesses
system.cpu.icache.overall_miss_rate::cpu.inst     0.000000                       # miss rate for overall accesses
system.cpu.icache.overall_miss_rate::total     0.000000                       # miss rate for overall accesses
system.cpu.icache.ReadReq_avg_miss_latency::cpu.inst 175791.549296                       # average ReadReq miss latency
system.cpu.icache.ReadReq_avg_miss_latency::total 175791.549296                       # average ReadReq miss latency
system.cpu.icache.demand_avg_miss_latency::cpu.inst 175791.549296                       # average overall miss latency
system.cpu.icache.demand_avg_miss_latency::total 175791.549296                       # average overall miss latency
system.cpu.icache.overall_avg_miss_latency::cpu.inst 175791.549296                       # average overall miss latency
system.cpu.icache.overall_avg_miss_latency::total 175791.549296                       # average overall miss latency
system.cpu.icache.blocked_cycles::no_mshrs            0                       # number of cycles access was blocked
system.cpu.icache.blocked_cycles::no_targets            0                       # number of cycles access was blocked
system.cpu.icache.blocked::no_mshrs                 0                       # number of cycles access was blocked
system.cpu.icache.blocked::no_targets               0                       # number of cycles access was blocked
system.cpu.icache.avg_blocked_cycles::no_mshrs          nan                       # average number of cycles each access was blocked
system.cpu.icache.avg_blocked_cycles::no_targets          nan                       # average number of cycles each access was blocked
system.cpu.icache.writebacks::writebacks           13                       # number of writebacks
system.cpu.icache.writebacks::total                13                       # number of writebacks
system.cpu.icache.ReadReq_mshr_misses::cpu.inst          355                       # number of ReadReq MSHR misses
system.cpu.icache.ReadReq_mshr_misses::total          355                       # number of ReadReq MSHR misses
system.cpu.icache.demand_mshr_misses::cpu.inst          355                       # number of demand (read+write) MSHR misses
system.cpu.icache.demand_mshr_misses::total          355                       # number of demand (read+write) MSHR misses
system.cpu.icache.overall_mshr_misses::cpu.inst          355                       # number of overall MSHR misses
system.cpu.icache.overall_mshr_misses::total          355                       # number of overall MSHR misses
system.cpu.icache.ReadReq_mshr_miss_latency::cpu.inst     62051000                       # number of ReadReq MSHR miss cycles
system.cpu.icache.ReadReq_mshr_miss_latency::total     62051000                       # number of ReadReq MSHR miss cycles
system.cpu.icache.demand_mshr_miss_latency::cpu.inst     62051000                       # number of demand (read+write) MSHR miss cycles
system.cpu.icache.demand_mshr_miss_latency::total     62051000                       # number of demand (read+write) MSHR miss cycles
system.cpu.icache.overall_mshr_miss_latency::cpu.inst     62051000                       # number of overall MSHR miss cycles
system.cpu.icache.overall_mshr_miss_latency::total     62051000                       # number of overall MSHR miss cycles
system.cpu.icache.ReadReq_mshr_miss_rate::cpu.inst     0.000000                       # mshr miss rate for ReadReq accesses
system.cpu.icache.ReadReq_mshr_miss_rate::total     0.000000                       # mshr miss rate for ReadReq accesses
system.cpu.icache.demand_mshr_miss_rate::cpu.inst     0.000000                       # mshr miss rate for demand accesses
system.cpu.icache.demand_mshr_miss_rate::total     0.000000                       # mshr miss rate for demand accesses
system.cpu.icache.overall_mshr_miss_rate::cpu.inst     0.000000                       # mshr miss rate for overall accesses
system.cpu.icache.overall_mshr_miss_rate::total     0.000000                       # mshr miss rate for overall accesses
system.cpu.icache.ReadReq_avg_mshr_miss_latency::cpu.inst 174791.549296                       # average ReadReq mshr miss latency
system.cpu.icache.ReadReq_avg_mshr_miss_latency::total 174791.549296                       # average ReadReq mshr miss latency
system.cpu.icache.demand_avg_mshr_miss_latency::cpu.inst 174791.549296                       # average overall mshr miss latency
system.cpu.icache.demand_avg_mshr_miss_latency::total 174791.549296                       # average overall mshr miss latency
system.cpu.icache.overall_avg_mshr_miss_latency::cpu.inst 174791.549296                       # average overall mshr miss latency
system.cpu.icache.overall_avg_mshr_miss_latency::total 174791.549296                       # average overall mshr miss latency
system.cpu.icache.replacements                     13                       # number of replacements
system.cpu.itb_walker_cache.tags.pwrStateResidencyTicks::UNDEFINED 1950348865000                       # Cumulative time (in ticks) in various power states
system.cpu.itb_walker_cache.tags.tagsinuse            0                       # Cycle average of tags in use
system.cpu.itb_walker_cache.tags.total_refs            0                       # Total number of references to valid blocks.
system.cpu.itb_walker_cache.tags.sampled_refs            0                       # Sample count of references to valid blocks.
system.cpu.itb_walker_cache.tags.avg_refs          nan                       # Average number of references to valid blocks.
system.cpu.itb_walker_cache.tags.warmup_cycle            0                       # Cycle when the warmup percentage was hit.
system.cpu.itb_walker_cache.tags.tag_accesses            0                       # Number of tag accesses
system.cpu.itb_walker_cache.tags.data_accesses            0                       # Number of data accesses
system.cpu.itb_walker_cache.pwrStateResidencyTicks::UNDEFINED 1950348865000                       # Cumulative time (in ticks) in various power states
system.cpu.itb_walker_cache.blocked_cycles::no_mshrs            0                       # number of cycles access was blocked
system.cpu.itb_walker_cache.blocked_cycles::no_targets            0                       # number of cycles access was blocked
system.cpu.itb_walker_cache.blocked::no_mshrs            0                       # number of cycles access was blocked
system.cpu.itb_walker_cache.blocked::no_targets            0                       # number of cycles access was blocked
system.cpu.itb_walker_cache.avg_blocked_cycles::no_mshrs          nan                       # average number of cycles each access was blocked
system.cpu.itb_walker_cache.avg_blocked_cycles::no_targets          nan                       # average number of cycles each access was blocked
system.cpu.itb_walker_cache.replacements            0                       # number of replacements
system.l2.tags.pwrStateResidencyTicks::UNDEFINED 1950348865000                       # Cumulative time (in ticks) in various power states
system.l2.tags.tagsinuse                  2046.562624                       # Cycle average of tags in use
system.l2.tags.total_refs                     3528907                       # Total number of references to valid blocks.
system.l2.tags.sampled_refs                   1712089                       # Sample count of references to valid blocks.
system.l2.tags.avg_refs                      2.061170                       # Average number of references to valid blocks.
system.l2.tags.warmup_cycle                    428500                       # Cycle when the warmup percentage was hit.
system.l2.tags.occ_blocks::writebacks        0.100827                       # Average occupied blocks per requestor
system.l2.tags.occ_blocks::cpu.inst          0.468284                       # Average occupied blocks per requestor
system.l2.tags.occ_blocks::cpu.data       2045.993514                       # Average occupied blocks per requestor
system.l2.tags.occ_percent::writebacks       0.000049                       # Average percentage of cache occupancy
system.l2.tags.occ_percent::cpu.inst         0.000229                       # Average percentage of cache occupancy
system.l2.tags.occ_percent::cpu.data         0.999020                       # Average percentage of cache occupancy
system.l2.tags.occ_percent::total            0.999298                       # Average percentage of cache occupancy
system.l2.tags.occ_task_id_blocks::1024          2048                       # Occupied blocks per task id
system.l2.tags.age_task_id_blocks_1024::0           49                       # Occupied blocks per task id
system.l2.tags.age_task_id_blocks_1024::1           80                       # Occupied blocks per task id
system.l2.tags.age_task_id_blocks_1024::2          770                       # Occupied blocks per task id
system.l2.tags.age_task_id_blocks_1024::3         1149                       # Occupied blocks per task id
system.l2.tags.occ_task_id_percent::1024            1                       # Percentage of cache occupancy per task id
system.l2.tags.tag_accesses                  15851925                       # Number of tag accesses
system.l2.tags.data_accesses                 15851925                       # Number of data accesses
system.l2.pwrStateResidencyTicks::UNDEFINED 1950348865000                       # Cumulative time (in ticks) in various power states
system.l2.WritebackDirty_hits::writebacks        59508                       # number of WritebackDirty hits
system.l2.WritebackDirty_hits::total            59508                       # number of WritebackDirty hits
system.l2.WritebackClean_hits::writebacks           13                       # number of WritebackClean hits
system.l2.WritebackClean_hits::total               13                       # number of WritebackClean hits
system.l2.UpgradeReq_hits::cpu.data                 1                       # number of UpgradeReq hits
system.l2.UpgradeReq_hits::total                    1                       # number of UpgradeReq hits
system.l2.ReadExReq_hits::cpu.data                  2                       # number of ReadExReq hits
system.l2.ReadExReq_hits::total                     2                       # number of ReadExReq hits
system.l2.ReadSharedReq_hits::cpu.data          55969                       # number of ReadSharedReq hits
system.l2.ReadSharedReq_hits::total             55969                       # number of ReadSharedReq hits
system.l2.demand_hits::cpu.data                 55971                       # number of demand (read+write) hits
system.l2.demand_hits::total                    55971                       # number of demand (read+write) hits
system.l2.overall_hits::cpu.data                55971                       # number of overall hits
system.l2.overall_hits::total                   55971                       # number of overall hits
system.l2.ReadExReq_misses::cpu.data            16996                       # number of ReadExReq misses
system.l2.ReadExReq_misses::total               16996                       # number of ReadExReq misses
system.l2.ReadCleanReq_misses::cpu.inst           355                       # number of ReadCleanReq misses
system.l2.ReadCleanReq_misses::total              355                       # number of ReadCleanReq misses
system.l2.ReadSharedReq_misses::cpu.data      1694584                       # number of ReadSharedReq misses
system.l2.ReadSharedReq_misses::total         1694584                       # number of ReadSharedReq misses
system.l2.demand_misses::cpu.inst                 355                       # number of demand (read+write) misses
system.l2.demand_misses::cpu.data             1711580                       # number of demand (read+write) misses
system.l2.demand_misses::total                1711935                       # number of demand (read+write) misses
system.l2.overall_misses::cpu.inst                355                       # number of overall misses
system.l2.overall_misses::cpu.data            1711580                       # number of overall misses
system.l2.overall_misses::total               1711935                       # number of overall misses
system.l2.ReadExReq_miss_latency::cpu.data   3172901000                       # number of ReadExReq miss cycles
system.l2.ReadExReq_miss_latency::total    3172901000                       # number of ReadExReq miss cycles
system.l2.ReadCleanReq_miss_latency::cpu.inst     61518000                       # number of ReadCleanReq miss cycles
system.l2.ReadCleanReq_miss_latency::total     61518000                       # number of ReadCleanReq miss cycles
system.l2.ReadSharedReq_miss_latency::cpu.data  82786665000                       # number of ReadSharedReq miss cycles
system.l2.ReadSharedReq_miss_latency::total  82786665000                       # number of ReadSharedReq miss cycles
system.l2.demand_miss_latency::cpu.inst      61518000                       # number of demand (read+write) miss cycles
system.l2.demand_miss_latency::cpu.data   85959566000                       # number of demand (read+write) miss cycles
system.l2.demand_miss_latency::total      86021084000                       # number of demand (read+write) miss cycles
system.l2.overall_miss_latency::cpu.inst     61518000                       # number of overall miss cycles
system.l2.overall_miss_latency::cpu.data  85959566000                       # number of overall miss cycles
system.l2.overall_miss_latency::total     86021084000                       # number of overall miss cycles
system.l2.WritebackDirty_accesses::writebacks        59508                       # number of WritebackDirty accesses(hits+misses)
system.l2.WritebackDirty_accesses::total        59508                       # number of WritebackDirty accesses(hits+misses)
system.l2.WritebackClean_accesses::writebacks           13                       # number of WritebackClean accesses(hits+misses)
system.l2.WritebackClean_accesses::total           13                       # number of WritebackClean accesses(hits+misses)
system.l2.UpgradeReq_accesses::cpu.data             1                       # number of UpgradeReq accesses(hits+misses)
system.l2.UpgradeReq_accesses::total                1                       # number of UpgradeReq accesses(hits+misses)
system.l2.ReadExReq_accesses::cpu.data          16998                       # number of ReadExReq accesses(hits+misses)
system.l2.ReadExReq_accesses::total             16998                       # number of ReadExReq accesses(hits+misses)
system.l2.ReadCleanReq_accesses::cpu.inst          355                       # number of ReadCleanReq accesses(hits+misses)
system.l2.ReadCleanReq_accesses::total            355                       # number of ReadCleanReq accesses(hits+misses)
system.l2.ReadSharedReq_accesses::cpu.data      1750553                       # number of ReadSharedReq accesses(hits+misses)
system.l2.ReadSharedReq_accesses::total       1750553                       # number of ReadSharedReq accesses(hits+misses)
system.l2.demand_accesses::cpu.inst               355                       # number of demand (read+write) accesses
system.l2.demand_accesses::cpu.data           1767551                       # number of demand (read+write) accesses
system.l2.demand_accesses::total              1767906                       # number of demand (read+write) accesses
system.l2.overall_accesses::cpu.inst              355                       # number of overall (read+write) accesses
system.l2.overall_accesses::cpu.data          1767551                       # number of overall (read+write) accesses
system.l2.overall_accesses::total             1767906                       # number of overall (read+write) accesses
system.l2.ReadExReq_miss_rate::cpu.data      0.999882                       # miss rate for ReadExReq accesses
system.l2.ReadExReq_miss_rate::total         0.999882                       # miss rate for ReadExReq accesses
system.l2.ReadCleanReq_miss_rate::cpu.inst            1                       # miss rate for ReadCleanReq accesses
system.l2.ReadCleanReq_miss_rate::total             1                       # miss rate for ReadCleanReq accesses
system.l2.ReadSharedReq_miss_rate::cpu.data     0.968028                       # miss rate for ReadSharedReq accesses
system.l2.ReadSharedReq_miss_rate::total     0.968028                       # miss rate for ReadSharedReq accesses
system.l2.demand_miss_rate::cpu.inst                1                       # miss rate for demand accesses
system.l2.demand_miss_rate::cpu.data         0.968334                       # miss rate for demand accesses
system.l2.demand_miss_rate::total            0.968341                       # miss rate for demand accesses
system.l2.overall_miss_rate::cpu.inst               1                       # miss rate for overall accesses
system.l2.overall_miss_rate::cpu.data        0.968334                       # miss rate for overall accesses
system.l2.overall_miss_rate::total           0.968341                       # miss rate for overall accesses
system.l2.ReadExReq_avg_miss_latency::cpu.data 186685.161214                       # average ReadExReq miss latency
system.l2.ReadExReq_avg_miss_latency::total 186685.161214                       # average ReadExReq miss latency
system.l2.ReadCleanReq_avg_miss_latency::cpu.inst 173290.140845                       # average ReadCleanReq miss latency
system.l2.ReadCleanReq_avg_miss_latency::total 173290.140845                       # average ReadCleanReq miss latency
system.l2.ReadSharedReq_avg_miss_latency::cpu.data 48853.680313                       # average ReadSharedReq miss latency
system.l2.ReadSharedReq_avg_miss_latency::total 48853.680313                       # average ReadSharedReq miss latency
system.l2.demand_avg_miss_latency::cpu.inst 173290.140845                       # average overall miss latency
system.l2.demand_avg_miss_latency::cpu.data 50222.347772                       # average overall miss latency
system.l2.demand_avg_miss_latency::total 50247.868056                       # average overall miss latency
system.l2.overall_avg_miss_latency::cpu.inst 173290.140845                       # average overall miss latency
system.l2.overall_avg_miss_latency::cpu.data 50222.347772                       # average overall miss latency
system.l2.overall_avg_miss_latency::total 50247.868056                       # average overall miss latency
system.l2.blocked_cycles::no_mshrs                  0                       # number of cycles access was blocked
system.l2.blocked_cycles::no_targets                0                       # number of cycles access was blocked
system.l2.blocked::no_mshrs                         0                       # number of cycles access was blocked
system.l2.blocked::no_targets                       0                       # number of cycles access was blocked
system.l2.avg_blocked_cycles::no_mshrs            nan                       # average number of cycles each access was blocked
system.l2.avg_blocked_cycles::no_targets          nan                       # average number of cycles each access was blocked
system.l2.writebacks::writebacks              1518010                       # number of writebacks
system.l2.writebacks::total                   1518010                       # number of writebacks
system.l2.CleanEvict_mshr_misses::writebacks         6052                       # number of CleanEvict MSHR misses
system.l2.CleanEvict_mshr_misses::total          6052                       # number of CleanEvict MSHR misses
system.l2.ReadExReq_mshr_misses::cpu.data        16996                       # number of ReadExReq MSHR misses
system.l2.ReadExReq_mshr_misses::total          16996                       # number of ReadExReq MSHR misses
system.l2.ReadCleanReq_mshr_misses::cpu.inst          355                       # number of ReadCleanReq MSHR misses
system.l2.ReadCleanReq_mshr_misses::total          355                       # number of ReadCleanReq MSHR misses
system.l2.ReadSharedReq_mshr_misses::cpu.data      1694584                       # number of ReadSharedReq MSHR misses
system.l2.ReadSharedReq_mshr_misses::total      1694584                       # number of ReadSharedReq MSHR misses
system.l2.demand_mshr_misses::cpu.inst            355                       # number of demand (read+write) MSHR misses
system.l2.demand_mshr_misses::cpu.data        1711580                       # number of demand (read+write) MSHR misses
system.l2.demand_mshr_misses::total           1711935                       # number of demand (read+write) MSHR misses
system.l2.overall_mshr_misses::cpu.inst           355                       # number of overall MSHR misses
system.l2.overall_mshr_misses::cpu.data       1711580                       # number of overall MSHR misses
system.l2.overall_mshr_misses::total          1711935                       # number of overall MSHR misses
system.l2.ReadExReq_mshr_miss_latency::cpu.data   3002941000                       # number of ReadExReq MSHR miss cycles
system.l2.ReadExReq_mshr_miss_latency::total   3002941000                       # number of ReadExReq MSHR miss cycles
system.l2.ReadCleanReq_mshr_miss_latency::cpu.inst     57968000                       # number of ReadCleanReq MSHR miss cycles
system.l2.ReadCleanReq_mshr_miss_latency::total     57968000                       # number of ReadCleanReq MSHR miss cycles
system.l2.ReadSharedReq_mshr_miss_latency::cpu.data  65840825000                       # number of ReadSharedReq MSHR miss cycles
system.l2.ReadSharedReq_mshr_miss_latency::total  65840825000                       # number of ReadSharedReq MSHR miss cycles
system.l2.demand_mshr_miss_latency::cpu.inst     57968000                       # number of demand (read+write) MSHR miss cycles
system.l2.demand_mshr_miss_latency::cpu.data  68843766000                       # number of demand (read+write) MSHR miss cycles
system.l2.demand_mshr_miss_latency::total  68901734000                       # number of demand (read+write) MSHR miss cycles
system.l2.overall_mshr_miss_latency::cpu.inst     57968000                       # number of overall MSHR miss cycles
system.l2.overall_mshr_miss_latency::cpu.data  68843766000                       # number of overall MSHR miss cycles
system.l2.overall_mshr_miss_latency::total  68901734000                       # number of overall MSHR miss cycles
system.l2.CleanEvict_mshr_miss_rate::writebacks          inf                       # mshr miss rate for CleanEvict accesses
system.l2.CleanEvict_mshr_miss_rate::total          inf                       # mshr miss rate for CleanEvict accesses
system.l2.ReadExReq_mshr_miss_rate::cpu.data     0.999882                       # mshr miss rate for ReadExReq accesses
system.l2.ReadExReq_mshr_miss_rate::total     0.999882                       # mshr miss rate for ReadExReq accesses
system.l2.ReadCleanReq_mshr_miss_rate::cpu.inst            1                       # mshr miss rate for ReadCleanReq accesses
system.l2.ReadCleanReq_mshr_miss_rate::total            1                       # mshr miss rate for ReadCleanReq accesses
system.l2.ReadSharedReq_mshr_miss_rate::cpu.data     0.968028                       # mshr miss rate for ReadSharedReq accesses
system.l2.ReadSharedReq_mshr_miss_rate::total     0.968028                       # mshr miss rate for ReadSharedReq accesses
system.l2.demand_mshr_miss_rate::cpu.inst            1                       # mshr miss rate for demand accesses
system.l2.demand_mshr_miss_rate::cpu.data     0.968334                       # mshr miss rate for demand accesses
system.l2.demand_mshr_miss_rate::total       0.968341                       # mshr miss rate for demand accesses
system.l2.overall_mshr_miss_rate::cpu.inst            1                       # mshr miss rate for overall accesses
system.l2.overall_mshr_miss_rate::cpu.data     0.968334                       # mshr miss rate for overall accesses
system.l2.overall_mshr_miss_rate::total      0.968341                       # mshr miss rate for overall accesses
system.l2.ReadExReq_avg_mshr_miss_latency::cpu.data 176685.161214                       # average ReadExReq mshr miss latency
system.l2.ReadExReq_avg_mshr_miss_latency::total 176685.161214                       # average ReadExReq mshr miss latency
system.l2.ReadCleanReq_avg_mshr_miss_latency::cpu.inst 163290.140845                       # average ReadCleanReq mshr miss latency
system.l2.ReadCleanReq_avg_mshr_miss_latency::total 163290.140845                       # average ReadCleanReq mshr miss latency
system.l2.ReadSharedReq_avg_mshr_miss_latency::cpu.data 38853.680313                       # average ReadSharedReq mshr miss latency
system.l2.ReadSharedReq_avg_mshr_miss_latency::total 38853.680313                       # average ReadSharedReq mshr miss latency
system.l2.demand_avg_mshr_miss_latency::cpu.inst 163290.140845                       # average overall mshr miss latency
system.l2.demand_avg_mshr_miss_latency::cpu.data 40222.347772                       # average overall mshr miss latency
system.l2.demand_avg_mshr_miss_latency::total 40247.868056                       # average overall mshr miss latency
system.l2.overall_avg_mshr_miss_latency::cpu.inst 163290.140845                       # average overall mshr miss latency
system.l2.overall_avg_mshr_miss_latency::cpu.data 40222.347772                       # average overall mshr miss latency
system.l2.overall_avg_mshr_miss_latency::total 40247.868056                       # average overall mshr miss latency
system.l2.replacements                        1710041                       # number of replacements
system.l3.tags.pwrStateResidencyTicks::UNDEFINED 1950348865000                       # Cumulative time (in ticks) in various power states
system.l3.tags.tagsinuse                  8161.257254                       # Cycle average of tags in use
system.l3.tags.total_refs                     3382488                       # Total number of references to valid blocks.
system.l3.tags.sampled_refs                    105135                       # Sample count of references to valid blocks.
system.l3.tags.avg_refs                     32.172806                       # Average number of references to valid blocks.
system.l3.tags.warmup_cycle                    418000                       # Cycle when the warmup percentage was hit.
system.l3.tags.occ_blocks::writebacks     1279.079869                       # Average occupied blocks per requestor
system.l3.tags.occ_blocks::cpu.inst          2.197408                       # Average occupied blocks per requestor
system.l3.tags.occ_blocks::cpu.data       6879.979976                       # Average occupied blocks per requestor
system.l3.tags.occ_percent::writebacks       0.156138                       # Average percentage of cache occupancy
system.l3.tags.occ_percent::cpu.inst         0.000268                       # Average percentage of cache occupancy
system.l3.tags.occ_percent::cpu.data         0.839841                       # Average percentage of cache occupancy
system.l3.tags.occ_percent::total            0.996247                       # Average percentage of cache occupancy
system.l3.tags.occ_task_id_blocks::1024          8192                       # Occupied blocks per task id
system.l3.tags.age_task_id_blocks_1024::0           43                       # Occupied blocks per task id
system.l3.tags.age_task_id_blocks_1024::1           20                       # Occupied blocks per task id
system.l3.tags.age_task_id_blocks_1024::2           52                       # Occupied blocks per task id
system.l3.tags.age_task_id_blocks_1024::3          115                       # Occupied blocks per task id
system.l3.tags.age_task_id_blocks_1024::4         7962                       # Occupied blocks per task id
system.l3.tags.occ_task_id_percent::1024            1                       # Percentage of cache occupancy per task id
system.l3.tags.tag_accesses                  13794399                       # Number of tag accesses
system.l3.tags.data_accesses                 13794399                       # Number of data accesses
system.l3.pwrStateResidencyTicks::UNDEFINED 1950348865000                       # Cumulative time (in ticks) in various power states
system.l3.WritebackDirty_hits::writebacks      1518010                       # number of WritebackDirty hits
system.l3.WritebackDirty_hits::total          1518010                       # number of WritebackDirty hits
system.l3.ReadExReq_hits::cpu.data                  1                       # number of ReadExReq hits
system.l3.ReadExReq_hits::total                     1                       # number of ReadExReq hits
system.l3.ReadSharedReq_hits::cpu.data        1610450                       # number of ReadSharedReq hits
system.l3.ReadSharedReq_hits::total           1610450                       # number of ReadSharedReq hits
system.l3.demand_hits::cpu.data               1610451                       # number of demand (read+write) hits
system.l3.demand_hits::total                  1610451                       # number of demand (read+write) hits
system.l3.overall_hits::cpu.data              1610451                       # number of overall hits
system.l3.overall_hits::total                 1610451                       # number of overall hits
system.l3.ReadExReq_misses::cpu.data            16995                       # number of ReadExReq misses
system.l3.ReadExReq_misses::total               16995                       # number of ReadExReq misses
system.l3.ReadSharedReq_misses::cpu.inst          355                       # number of ReadSharedReq misses
system.l3.ReadSharedReq_misses::cpu.data        84134                       # number of ReadSharedReq misses
system.l3.ReadSharedReq_misses::total           84489                       # number of ReadSharedReq misses
system.l3.demand_misses::cpu.inst                 355                       # number of demand (read+write) misses
system.l3.demand_misses::cpu.data              101129                       # number of demand (read+write) misses
system.l3.demand_misses::total                 101484                       # number of demand (read+write) misses
system.l3.overall_misses::cpu.inst                355                       # number of overall misses
system.l3.overall_misses::cpu.data             101129                       # number of overall misses
system.l3.overall_misses::total                101484                       # number of overall misses
system.l3.ReadExReq_miss_latency::cpu.data   2798978500                       # number of ReadExReq miss cycles
system.l3.ReadExReq_miss_latency::total    2798978500                       # number of ReadExReq miss cycles
system.l3.ReadSharedReq_miss_latency::cpu.inst     53708000                       # number of ReadSharedReq miss cycles
system.l3.ReadSharedReq_miss_latency::cpu.data  28549834500                       # number of ReadSharedReq miss cycles
system.l3.ReadSharedReq_miss_latency::total  28603542500                       # number of ReadSharedReq miss cycles
system.l3.demand_miss_latency::cpu.inst      53708000                       # number of demand (read+write) miss cycles
system.l3.demand_miss_latency::cpu.data   31348813000                       # number of demand (read+write) miss cycles
system.l3.demand_miss_latency::total      31402521000                       # number of demand (read+write) miss cycles
system.l3.overall_miss_latency::cpu.inst     53708000                       # number of overall miss cycles
system.l3.overall_miss_latency::cpu.data  31348813000                       # number of overall miss cycles
system.l3.overall_miss_latency::total     31402521000                       # number of overall miss cycles
system.l3.WritebackDirty_accesses::writebacks      1518010                       # number of WritebackDirty accesses(hits+misses)
system.l3.WritebackDirty_accesses::total      1518010                       # number of WritebackDirty accesses(hits+misses)
system.l3.ReadExReq_accesses::cpu.data          16996                       # number of ReadExReq accesses(hits+misses)
system.l3.ReadExReq_accesses::total             16996                       # number of ReadExReq accesses(hits+misses)
system.l3.ReadSharedReq_accesses::cpu.inst          355                       # number of ReadSharedReq accesses(hits+misses)
system.l3.ReadSharedReq_accesses::cpu.data      1694584                       # number of ReadSharedReq accesses(hits+misses)
system.l3.ReadSharedReq_accesses::total       1694939                       # number of ReadSharedReq accesses(hits+misses)
system.l3.demand_accesses::cpu.inst               355                       # number of demand (read+write) accesses
system.l3.demand_accesses::cpu.data           1711580                       # number of demand (read+write) accesses
system.l3.demand_accesses::total              1711935                       # number of demand (read+write) accesses
system.l3.overall_accesses::cpu.inst              355                       # number of overall (read+write) accesses
system.l3.overall_accesses::cpu.data          1711580                       # number of overall (read+write) accesses
system.l3.overall_accesses::total             1711935                       # number of overall (read+write) accesses
system.l3.ReadExReq_miss_rate::cpu.data      0.999941                       # miss rate for ReadExReq accesses
system.l3.ReadExReq_miss_rate::total         0.999941                       # miss rate for ReadExReq accesses
system.l3.ReadSharedReq_miss_rate::cpu.inst            1                       # miss rate for ReadSharedReq accesses
system.l3.ReadSharedReq_miss_rate::cpu.data     0.049649                       # miss rate for ReadSharedReq accesses
system.l3.ReadSharedReq_miss_rate::total     0.049848                       # miss rate for ReadSharedReq accesses
system.l3.demand_miss_rate::cpu.inst                1                       # miss rate for demand accesses
system.l3.demand_miss_rate::cpu.data         0.059085                       # miss rate for demand accesses
system.l3.demand_miss_rate::total            0.059280                       # miss rate for demand accesses
system.l3.overall_miss_rate::cpu.inst               1                       # miss rate for overall accesses
system.l3.overall_miss_rate::cpu.data        0.059085                       # miss rate for overall accesses
system.l3.overall_miss_rate::total           0.059280                       # miss rate for overall accesses
system.l3.ReadExReq_avg_miss_latency::cpu.data 164694.233598                       # average ReadExReq miss latency
system.l3.ReadExReq_avg_miss_latency::total 164694.233598                       # average ReadExReq miss latency
system.l3.ReadSharedReq_avg_miss_latency::cpu.inst 151290.140845                       # average ReadSharedReq miss latency
system.l3.ReadSharedReq_avg_miss_latency::cpu.data 339337.657784                       # average ReadSharedReq miss latency
system.l3.ReadSharedReq_avg_miss_latency::total 338547.532815                       # average ReadSharedReq miss latency
system.l3.demand_avg_miss_latency::cpu.inst 151290.140845                       # average overall miss latency
system.l3.demand_avg_miss_latency::cpu.data 309988.361400                       # average overall miss latency
system.l3.demand_avg_miss_latency::total 309433.221000                       # average overall miss latency
system.l3.overall_avg_miss_latency::cpu.inst 151290.140845                       # average overall miss latency
system.l3.overall_avg_miss_latency::cpu.data 309988.361400                       # average overall miss latency
system.l3.overall_avg_miss_latency::total 309433.221000                       # average overall miss latency
system.l3.blocked_cycles::no_mshrs                  0                       # number of cycles access was blocked
system.l3.blocked_cycles::no_targets                0                       # number of cycles access was blocked
system.l3.blocked::no_mshrs                         0                       # number of cycles access was blocked
system.l3.blocked::no_targets                       0                       # number of cycles access was blocked
system.l3.avg_blocked_cycles::no_mshrs            nan                       # average number of cycles each access was blocked
system.l3.avg_blocked_cycles::no_targets          nan                       # average number of cycles each access was blocked
system.l3.writebacks::writebacks                10382                       # number of writebacks
system.l3.writebacks::total                     10382                       # number of writebacks
system.l3.CleanEvict_mshr_misses::writebacks        39828                       # number of CleanEvict MSHR misses
system.l3.CleanEvict_mshr_misses::total         39828                       # number of CleanEvict MSHR misses
system.l3.ReadExReq_mshr_misses::cpu.data        16995                       # number of ReadExReq MSHR misses
system.l3.ReadExReq_mshr_misses::total          16995                       # number of ReadExReq MSHR misses
system.l3.ReadSharedReq_mshr_misses::cpu.inst          355                       # number of ReadSharedReq MSHR misses
system.l3.ReadSharedReq_mshr_misses::cpu.data        84134                       # number of ReadSharedReq MSHR misses
system.l3.ReadSharedReq_mshr_misses::total        84489                       # number of ReadSharedReq MSHR misses
system.l3.demand_mshr_misses::cpu.inst            355                       # number of demand (read+write) MSHR misses
system.l3.demand_mshr_misses::cpu.data         101129                       # number of demand (read+write) MSHR misses
system.l3.demand_mshr_misses::total            101484                       # number of demand (read+write) MSHR misses
system.l3.overall_mshr_misses::cpu.inst           355                       # number of overall MSHR misses
system.l3.overall_mshr_misses::cpu.data        101129                       # number of overall MSHR misses
system.l3.overall_mshr_misses::total           101484                       # number of overall MSHR misses
system.l3.ReadExReq_mshr_miss_latency::cpu.data   2629028500                       # number of ReadExReq MSHR miss cycles
system.l3.ReadExReq_mshr_miss_latency::total   2629028500                       # number of ReadExReq MSHR miss cycles
system.l3.ReadSharedReq_mshr_miss_latency::cpu.inst     50158000                       # number of ReadSharedReq MSHR miss cycles
system.l3.ReadSharedReq_mshr_miss_latency::cpu.data  27708494500                       # number of ReadSharedReq MSHR miss cycles
system.l3.ReadSharedReq_mshr_miss_latency::total  27758652500                       # number of ReadSharedReq MSHR miss cycles
system.l3.demand_mshr_miss_latency::cpu.inst     50158000                       # number of demand (read+write) MSHR miss cycles
system.l3.demand_mshr_miss_latency::cpu.data  30337523000                       # number of demand (read+write) MSHR miss cycles
system.l3.demand_mshr_miss_latency::total  30387681000                       # number of demand (read+write) MSHR miss cycles
system.l3.overall_mshr_miss_latency::cpu.inst     50158000                       # number of overall MSHR miss cycles
system.l3.overall_mshr_miss_latency::cpu.data  30337523000                       # number of overall MSHR miss cycles
system.l3.overall_mshr_miss_latency::total  30387681000                       # number of overall MSHR miss cycles
system.l3.CleanEvict_mshr_miss_rate::writebacks          inf                       # mshr miss rate for CleanEvict accesses
system.l3.CleanEvict_mshr_miss_rate::total          inf                       # mshr miss rate for CleanEvict accesses
system.l3.ReadExReq_mshr_miss_rate::cpu.data     0.999941                       # mshr miss rate for ReadExReq accesses
system.l3.ReadExReq_mshr_miss_rate::total     0.999941                       # mshr miss rate for ReadExReq accesses
system.l3.ReadSharedReq_mshr_miss_rate::cpu.inst            1                       # mshr miss rate for ReadSharedReq accesses
system.l3.ReadSharedReq_mshr_miss_rate::cpu.data     0.049649                       # mshr miss rate for ReadSharedReq accesses
system.l3.ReadSharedReq_mshr_miss_rate::total     0.049848                       # mshr miss rate for ReadSharedReq accesses
system.l3.demand_mshr_miss_rate::cpu.inst            1                       # mshr miss rate for demand accesses
system.l3.demand_mshr_miss_rate::cpu.data     0.059085                       # mshr miss rate for demand accesses
system.l3.demand_mshr_miss_rate::total       0.059280                       # mshr miss rate for demand accesses
system.l3.overall_mshr_miss_rate::cpu.inst            1                       # mshr miss rate for overall accesses
system.l3.overall_mshr_miss_rate::cpu.data     0.059085                       # mshr miss rate for overall accesses
system.l3.overall_mshr_miss_rate::total      0.059280                       # mshr miss rate for overall accesses
system.l3.ReadExReq_avg_mshr_miss_latency::cpu.data 154694.233598                       # average ReadExReq mshr miss latency
system.l3.ReadExReq_avg_mshr_miss_latency::total 154694.233598                       # average ReadExReq mshr miss latency
system.l3.ReadSharedReq_avg_mshr_miss_latency::cpu.inst 141290.140845                       # average ReadSharedReq mshr miss latency
system.l3.ReadSharedReq_avg_mshr_miss_latency::cpu.data 329337.657784                       # average ReadSharedReq mshr miss latency
system.l3.ReadSharedReq_avg_mshr_miss_latency::total 328547.532815                       # average ReadSharedReq mshr miss latency
system.l3.demand_avg_mshr_miss_latency::cpu.inst 141290.140845                       # average overall mshr miss latency
system.l3.demand_avg_mshr_miss_latency::cpu.data 299988.361400                       # average overall mshr miss latency
system.l3.demand_avg_mshr_miss_latency::total 299433.221000                       # average overall mshr miss latency
system.l3.overall_avg_mshr_miss_latency::cpu.inst 141290.140845                       # average overall mshr miss latency
system.l3.overall_avg_mshr_miss_latency::cpu.data 299988.361400                       # average overall mshr miss latency
system.l3.overall_avg_mshr_miss_latency::total 299433.221000                       # average overall mshr miss latency
system.l3.replacements                          96943                       # number of replacements
system.membus.snoop_filter.tot_requests        195244                       # Total number of requests made to the snoop filter.
system.membus.snoop_filter.hit_single_requests        93760                       # Number of requests hitting in the snoop filter with a single holder of the requested data.
system.membus.snoop_filter.hit_multi_requests            0                       # Number of requests hitting in the snoop filter with multiple (>1) holders of the requested data.
system.membus.snoop_filter.tot_snoops               0                       # Total number of snoops made to the snoop filter.
system.membus.snoop_filter.hit_single_snoops            0                       # Number of snoops hitting in the snoop filter with a single holder of the requested data.
system.membus.snoop_filter.hit_multi_snoops            0                       # Number of snoops hitting in the snoop filter with multiple (>1) holders of the requested data.
system.membus.pwrStateResidencyTicks::UNDEFINED 1950348865000                       # Cumulative time (in ticks) in various power states
system.membus.trans_dist::ReadResp              84489                       # Transaction distribution
system.membus.trans_dist::WritebackDirty        10382                       # Transaction distribution
system.membus.trans_dist::CleanEvict            82577                       # Transaction distribution
system.membus.trans_dist::ReadExReq             16995                       # Transaction distribution
system.membus.trans_dist::ReadExResp            16995                       # Transaction distribution
system.membus.trans_dist::ReadSharedReq         84489                       # Transaction distribution
system.membus.pkt_count_system.l3.mem_side::system.mem_ctrls.port       295927                       # Packet count per connected master and slave (bytes)
system.membus.pkt_count_system.l3.mem_side::total       295927                       # Packet count per connected master and slave (bytes)
system.membus.pkt_count::total                 295927                       # Packet count per connected master and slave (bytes)
system.membus.pkt_size_system.l3.mem_side::system.mem_ctrls.port      7159424                       # Cumulative packet size per connected master and slave (bytes)
system.membus.pkt_size_system.l3.mem_side::total      7159424                       # Cumulative packet size per connected master and slave (bytes)
system.membus.pkt_size::total                 7159424                       # Cumulative packet size per connected master and slave (bytes)
system.membus.snoops                                0                       # Total snoops (count)
system.membus.snoopTraffic                          0                       # Total snoop traffic (bytes)
system.membus.snoop_fanout::samples            101484                       # Request fanout histogram
system.membus.snoop_fanout::mean                    0                       # Request fanout histogram
system.membus.snoop_fanout::stdev                   0                       # Request fanout histogram
system.membus.snoop_fanout::underflows              0      0.00%      0.00% # Request fanout histogram
system.membus.snoop_fanout::0                  101484    100.00%    100.00% # Request fanout histogram
system.membus.snoop_fanout::1                       0      0.00%    100.00% # Request fanout histogram
system.membus.snoop_fanout::overflows               0      0.00%    100.00% # Request fanout histogram
system.membus.snoop_fanout::min_value               0                       # Request fanout histogram
system.membus.snoop_fanout::max_value               0                       # Request fanout histogram
system.membus.snoop_fanout::total              101484                       # Request fanout histogram
system.membus.reqLayer2.occupancy           236932500                       # Layer occupancy (ticks)
system.membus.reqLayer2.utilization               0.0                       # Layer utilization (%)
system.membus.respLayer1.occupancy          507426000                       # Layer occupancy (ticks)
system.membus.respLayer1.utilization              0.0                       # Layer utilization (%)
system.tol2bus.pwrStateResidencyTicks::UNDEFINED 1950348865000                       # Cumulative time (in ticks) in various power states
system.tol2bus.trans_dist::ReadResp           1750908                       # Transaction distribution
system.tol2bus.trans_dist::WritebackDirty      1577518                       # Transaction distribution
system.tol2bus.trans_dist::WritebackClean           13                       # Transaction distribution
system.tol2bus.trans_dist::CleanEvict         1943374                       # Transaction distribution
system.tol2bus.trans_dist::UpgradeReq               1                       # Transaction distribution
system.tol2bus.trans_dist::UpgradeResp              1                       # Transaction distribution
system.tol2bus.trans_dist::ReadExReq            16998                       # Transaction distribution
system.tol2bus.trans_dist::ReadExResp           16998                       # Transaction distribution
system.tol2bus.trans_dist::ReadCleanReq           355                       # Transaction distribution
system.tol2bus.trans_dist::ReadSharedReq      1750553                       # Transaction distribution
system.tol2bus.pkt_count_system.cpu.icache.mem_side::system.l2.cpu_side          723                       # Packet count per connected master and slave (bytes)
system.tol2bus.pkt_count_system.cpu.dcache.mem_side::system.l2.cpu_side      5302143                       # Packet count per connected master and slave (bytes)
system.tol2bus.pkt_count::total               5302866                       # Packet count per connected master and slave (bytes)
system.tol2bus.pkt_size_system.cpu.icache.mem_side::system.l2.cpu_side        23552                       # Cumulative packet size per connected master and slave (bytes)
system.tol2bus.pkt_size_system.cpu.dcache.mem_side::system.l2.cpu_side    116931776                       # Cumulative packet size per connected master and slave (bytes)
system.tol2bus.pkt_size::total              116955328                       # Cumulative packet size per connected master and slave (bytes)
system.tol2bus.snoops                         1753853                       # Total snoops (count)
system.tol2bus.snoopTraffic                  97152640                       # Total snoop traffic (bytes)
system.tol2bus.snoop_fanout::samples          5288812                       # Request fanout histogram
system.tol2bus.snoop_fanout::mean            3.331616                       # Request fanout histogram
system.tol2bus.snoop_fanout::stdev           0.470794                       # Request fanout histogram
system.tol2bus.snoop_fanout::underflows             0      0.00%      0.00% # Request fanout histogram
system.tol2bus.snoop_fanout::0                      0      0.00%      0.00% # Request fanout histogram
system.tol2bus.snoop_fanout::1                      0      0.00%      0.00% # Request fanout histogram
system.tol2bus.snoop_fanout::2                      0      0.00%      0.00% # Request fanout histogram
system.tol2bus.snoop_fanout::3                3534959     66.84%     66.84% # Request fanout histogram
system.tol2bus.snoop_fanout::4                1753853     33.16%    100.00% # Request fanout histogram
system.tol2bus.snoop_fanout::overflows              0      0.00%    100.00% # Request fanout histogram
system.tol2bus.snoop_fanout::min_value              3                       # Request fanout histogram
system.tol2bus.snoop_fanout::max_value              4                       # Request fanout histogram
system.tol2bus.snoop_fanout::total            5288812                       # Request fanout histogram
system.tol2bus.reqLayer0.occupancy         1827000500                       # Layer occupancy (ticks)
system.tol2bus.reqLayer0.utilization              0.1                       # Layer utilization (%)
system.tol2bus.respLayer0.occupancy            532500                       # Layer occupancy (ticks)
system.tol2bus.respLayer0.utilization             0.0                       # Layer utilization (%)
system.tol2bus.respLayer1.occupancy        2651327000                       # Layer occupancy (ticks)
system.tol2bus.respLayer1.utilization             0.1                       # Layer utilization (%)
system.tol3bus.snoop_filter.tot_requests      3422333                       # Total number of requests made to the snoop filter.
system.tol3bus.snoop_filter.hit_single_requests      1710381                       # Number of requests hitting in the snoop filter with a single holder of the requested data.
system.tol3bus.snoop_filter.hit_multi_requests            0                       # Number of requests hitting in the snoop filter with multiple (>1) holders of the requested data.
system.tol3bus.snoop_filter.tot_snoops          43812                       # Total number of snoops made to the snoop filter.
system.tol3bus.snoop_filter.hit_single_snoops        43812                       # Number of snoops hitting in the snoop filter with a single holder of the requested data.
system.tol3bus.snoop_filter.hit_multi_snoops            0                       # Number of snoops hitting in the snoop filter with multiple (>1) holders of the requested data.
system.tol3bus.pwrStateResidencyTicks::UNDEFINED 1950348865000                       # Cumulative time (in ticks) in various power states
system.tol3bus.trans_dist::ReadResp           1694939                       # Transaction distribution
system.tol3bus.trans_dist::WritebackDirty      1528392                       # Transaction distribution
system.tol3bus.trans_dist::CleanEvict          278932                       # Transaction distribution
system.tol3bus.trans_dist::ReadExReq            16996                       # Transaction distribution
system.tol3bus.trans_dist::ReadExResp           16996                       # Transaction distribution
system.tol3bus.trans_dist::ReadSharedReq      1694939                       # Transaction distribution
system.tol3bus.pkt_count_system.l2.mem_side::system.l3.cpu_side      5134251                       # Packet count per connected master and slave (bytes)
system.tol3bus.pkt_size_system.l2.mem_side::system.l3.cpu_side    206716480                       # Cumulative packet size per connected master and slave (bytes)
system.tol3bus.snoops                           96943                       # Total snoops (count)
system.tol3bus.snoopTraffic                    664448                       # Total snoop traffic (bytes)
system.tol3bus.snoop_fanout::samples          1808895                       # Request fanout histogram
system.tol3bus.snoop_fanout::mean            0.024220                       # Request fanout histogram
system.tol3bus.snoop_fanout::stdev           0.153733                       # Request fanout histogram
system.tol3bus.snoop_fanout::underflows             0      0.00%      0.00% # Request fanout histogram
system.tol3bus.snoop_fanout::0                1765083     97.58%     97.58% # Request fanout histogram
system.tol3bus.snoop_fanout::1                  43812      2.42%    100.00% # Request fanout histogram
system.tol3bus.snoop_fanout::overflows              0      0.00%    100.00% # Request fanout histogram
system.tol3bus.snoop_fanout::min_value              0                       # Request fanout histogram
system.tol3bus.snoop_fanout::max_value              1                       # Request fanout histogram
system.tol3bus.snoop_fanout::total            1808895                       # Request fanout histogram
system.tol3bus.reqLayer0.occupancy         3229184983                       # Layer occupancy (ticks)
system.tol3bus.reqLayer0.utilization              0.2                       # Layer utilization (%)
system.tol3bus.respLayer0.occupancy        2567902517                       # Layer occupancy (ticks)
system.tol3bus.respLayer0.utilization             0.1                       # Layer utilization (%)

---------- End Simulation Statistics   ----------
